sulfone
                    3D
 Schrodinger Suite 2019-4.
 63 68  0  0  1  0            999 V2000
    8.3489   25.3208    2.9671 C   0  0  0  0  0  0
    7.3592   26.3696    2.5542 C   0  0  2  0  0  0
    6.2930   26.4508    3.5483 N   0  0  0  0  0  0
    5.5902   27.5906    3.8376 C   0  0  0  0  0  0
    4.6931   27.2187    4.8221 C   0  0  0  0  0  0
    3.7033   28.0616    5.4864 N   0  0  0  0  0  0
    2.8553   27.6603    6.4339 C   0  0  0  0  0  0
    2.8219   26.5075    6.8540 O   0  0  0  0  0  0
    1.9726   28.7789    6.9026 C   0  0  0  0  0  0
    2.1162   29.9806    6.3604 N   0  0  0  0  0  0
    1.1950   30.7412    6.9862 N   0  0  0  0  0  0
    0.4762   30.0284    7.9162 C   0  0  0  0  0  0
    0.9509   28.7530    7.8959 C   0  0  0  0  0  0
    0.4581   27.6240    8.7589 C   0  0  0  0  0  0
   -0.7607   28.0370    9.5856 C   0  0  2  0  0  0
   -2.0670   28.3840    8.9141 C   0  0  0  0  0  0
   -2.1253   28.3808    7.5315 F   0  0  0  0  0  0
   -3.2330   27.9581    9.5239 F   0  0  0  0  0  0
   -1.2865   29.4802    9.5964 C   0  0  1  0  0  0
   -1.9063   29.9767   10.8689 C   0  0  0  0  0  0
   -0.6082   30.5738    8.7785 C   0  0  0  0  0  0
    4.9350   25.8599    5.0480 C   0  0  0  0  0  0
    5.8980   25.3963    4.2817 N   0  0  0  0  0  0
    6.7738   26.0076    1.2214 C   0  0  0  0  0  0
    6.9248   26.8670    0.1396 C   0  0  0  0  0  0
    6.3824   26.5316   -1.0953 C   0  0  0  0  0  0
    5.6890   25.3368   -1.2483 C   0  0  0  0  0  0
    5.5380   24.4775   -0.1665 C   0  0  0  0  0  0
    6.0805   24.8129    1.0684 C   0  0  0  0  0  0
    8.8970   25.6768    4.3647 C   0  0  0  0  0  0
    9.8627   24.6066    4.9213 C   0  0  0  0  0  0
   11.3344   24.3884    3.7904 S   0  0  0  0  0  0
   10.4595   24.0856    2.1670 C   0  0  0  0  0  0
    9.4358   25.2064    1.8781 C   0  0  0  0  0  0
   12.0802   25.6515    3.7130 O   0  0  0  0  0  0
   12.0711   23.1791    4.1788 O   0  0  0  0  0  0
    7.7800   24.3903    3.0199 H   0  0  0  0  0  0
    7.8614   27.3342    2.4805 H   0  0  0  0  0  0
    5.7905   28.5265    3.3305 H   0  0  0  0  0  0
    3.7646   28.9978    5.1124 H   0  0  0  0  0  0
    1.0744   31.7208    6.7658 H   0  0  0  0  0  0
    0.1936   26.7516    8.1608 H   0  0  0  0  0  0
    1.2423   27.3009    9.4439 H   0  0  0  0  0  0
   -0.8743   27.4614   10.5022 H   0  0  0  0  0  0
   -2.2332   31.0079   10.7357 H   0  0  0  0  0  0
   -2.7639   29.3536   11.1226 H   0  0  0  0  0  0
   -1.1722   29.9293   11.6733 H   0  0  0  0  0  0
   -0.1897   31.3119    9.4629 H   0  0  0  0  0  0
   -1.3593   31.0825    8.1738 H   0  0  0  0  0  0
    4.4121   25.2317    5.7605 H   0  0  0  0  0  0
    7.4646   27.7972    0.2588 H   0  0  0  0  0  0
    6.4999   27.2007   -1.9375 H   0  0  0  0  0  0
    5.2667   25.0757   -2.2097 H   0  0  0  0  0  0
    4.9982   23.5473   -0.2856 H   0  0  0  0  0  0
    5.9629   24.1438    1.9107 H   0  0  0  0  0  0
    9.3969   26.6479    4.3269 H   0  0  0  0  0  0
    8.0612   25.8053    5.0561 H   0  0  0  0  0  0
   10.2633   24.8697    5.8972 H   0  0  0  0  0  0
    9.3901   23.6306    5.0005 H   0  0  0  0  0  0
   11.2358   24.0205    1.4087 H   0  0  0  0  0  0
    9.9857   23.1106    2.2519 H   0  0  0  0  0  0
    8.9589   25.0214    0.9129 H   0  0  0  0  0  0
    9.9507   26.1643    1.7708 H   0  0  0  0  0  0
  1  2  1  0  0  0
  1 34  1  0  0  0
  1 30  1  0  0  0
  1 37  1  0  0  0
  2  3  1  0  0  0
  2 24  1  0  0  0
  2 38  1  0  0  0
  3  4  1  0  0  0
  3 23  1  0  0  0
  4  5  2  0  0  0
  4 39  1  0  0  0
  5  6  1  0  0  0
  5 22  1  0  0  0
  6  7  1  0  0  0
  6 40  1  0  0  0
  7  8  2  0  0  0
  7  9  1  0  0  0
  9 10  2  0  0  0
  9 13  1  0  0  0
 10 11  1  0  0  0
 11 12  1  0  0  0
 11 41  1  0  0  0
 12 13  2  0  0  0
 12 21  1  0  0  0
 13 14  1  0  0  0
 14 15  1  0  0  0
 14 42  1  0  0  0
 14 43  1  0  0  0
 15 16  1  0  0  0
 15 19  1  0  0  0
 15 44  1  0  0  0
 16 17  1  0  0  0
 16 18  1  0  0  0
 16 19  1  0  0  0
 19 20  1  0  0  0
 19 21  1  0  0  0
 20 45  1  0  0  0
 20 46  1  0  0  0
 20 47  1  0  0  0
 21 48  1  0  0  0
 21 49  1  0  0  0
 22 23  2  0  0  0
 22 50  1  0  0  0
 24 25  2  0  0  0
 24 29  1  0  0  0
 25 26  1  0  0  0
 25 51  1  0  0  0
 26 27  2  0  0  0
 26 52  1  0  0  0
 27 28  1  0  0  0
 27 53  1  0  0  0
 28 29  2  0  0  0
 28 54  1  0  0  0
 29 55  1  0  0  0
 30 31  1  0  0  0
 30 56  1  0  0  0
 30 57  1  0  0  0
 31 32  1  0  0  0
 31 58  1  0  0  0
 31 59  1  0  0  0
 32 33  1  0  0  0
 32 35  2  0  0  0
 32 36  2  0  0  0
 33 34  1  0  0  0
 33 60  1  0  0  0
 33 61  1  0  0  0
 34 62  1  0  0  0
 34 63  1  0  0  0
M  END
> <s_m_entry_id>
253

> <s_m_entry_name>
entry

> <s_m_subgroup_title>
4RFM series

> <s_m_subgroupid>
4RFM model azet - preprocessed_split_by_structure

> <b_m_subgroup_collapsed>
0

$$$$
azet
                    3D
 Schrodinger Suite 2019-4.
 57 62  0  0  1  0            999 V2000
   10.2520   24.1060    3.5150 N   0  3  0  0  0  0
    9.0330   24.5770    4.3210 C   0  0  0  0  0  0
    8.2110   24.6680    3.0230 C   0  0  0  0  0  0
    9.5350   24.5810    2.2430 C   0  0  0  0  0  0
    7.3860   25.9730    2.8300 C   0  0  2  0  0  0
    6.3150   26.1290    3.8290 N   0  0  0  0  0  0
    5.6980   27.2990    4.1820 C   0  0  0  0  0  0
    4.6920   26.9650    5.0680 C   0  0  0  0  0  0
    3.7940   27.8580    5.6210 N   0  0  0  0  0  0
    2.7350   27.5550    6.4040 C   0  0  0  0  0  0
    2.4530   26.4210    6.7900 O   0  0  0  0  0  0
    1.9320   28.7020    6.7920 C   0  0  0  0  0  0
    2.0190   29.8920    6.2220 N   0  0  0  0  0  0
    1.1560   30.6700    6.8760 N   0  0  0  0  0  0
    0.4730   30.0070    7.8470 C   0  0  0  0  0  0
    0.9200   28.7000    7.7900 C   0  0  0  0  0  0
    0.3760   27.6200    8.7100 C   0  0  0  0  0  0
   -0.8260   28.0810    9.5800 C   0  0  2  0  0  0
   -2.1250   28.5270    8.9410 C   0  0  0  0  0  0
   -2.2120   28.5700    7.6110 F   0  0  0  0  0  0
   -3.2550   28.1340    9.5280 F   0  0  0  0  0  0
   -1.2540   29.5510    9.6480 C   0  0  1  0  0  0
   -1.7230   30.0770   11.0200 C   0  0  0  0  0  0
   -0.5250   30.6220    8.7910 C   0  0  0  0  0  0
    4.8250   25.5710    5.2120 C   0  0  0  0  0  0
    5.7850   25.0710    4.4680 N   0  0  0  0  0  0
    6.8710   26.1070    1.3920 C   0  0  0  0  0  0
    7.5390   26.9520    0.4980 C   0  0  0  0  0  0
    7.0830   27.0860   -0.8110 C   0  0  0  0  0  0
    5.9580   26.3760   -1.2260 C   0  0  0  0  0  0
    5.2850   25.5330   -0.3450 C   0  0  0  0  0  0
    5.7440   25.3940    0.9610 C   0  0  0  0  0  0
    8.7360   23.8130    5.0460 H   0  0  0  0  0  0
    9.2830   25.5260    4.8030 H   0  0  0  0  0  0
    7.5620   23.8030    2.8530 H   0  0  0  0  0  0
    9.9820   25.5310    1.9360 H   0  0  0  0  0  0
    9.6010   23.8170    1.4630 H   0  0  0  0  0  0
    8.0580   26.8130    3.0120 H   0  0  0  0  0  0
    6.0040   28.2410    3.7500 H   0  0  0  0  0  0
    3.9350   28.8340    5.3960 H   0  0  0  0  0  0
    1.0170   31.6540    6.6510 H   0  0  0  0  0  0
    1.1760   27.2880    9.3710 H   0  0  0  0  0  0
    0.0870   26.7410    8.1350 H   0  0  0  0  0  0
   -0.9320   27.4700   10.4660 H   0  0  0  0  0  0
   -2.4080   30.9190   10.9020 H   0  0  0  0  0  0
   -0.8740   30.4180   11.6110 H   0  0  0  0  0  0
   -2.2370   29.3140   11.6060 H   0  0  0  0  0  0
   -1.2590   31.2180    8.2520 H   0  0  0  0  0  0
   -0.0040   31.3170    9.4480 H   0  0  0  0  0  0
    4.2200   24.9350    5.8430 H   0  0  0  0  0  0
    8.4060   27.5140    0.8170 H   0  0  0  0  0  0
    7.6010   27.7370   -1.5020 H   0  0  0  0  0  0
    5.6060   26.4780   -2.2410 H   0  0  0  0  0  0
    4.4100   24.9910   -0.6760 H   0  0  0  0  0  0
    5.2150   24.7400    1.6420 H   0  0  0  0  0  0
   11.0770   24.6620    3.7120 H   0  0  0  0  0  0
   10.4092   23.1090    3.5511 H   0  0  0  0  0  0
  1 56  1  0  0  0
  1  2  1  0  0  0
  1  4  1  0  0  0
  1 57  1  0  0  0
  2 34  1  0  0  0
  2 33  1  0  0  0
  2  3  1  0  0  0
  3 35  1  0  0  0
  3  4  1  0  0  0
  3  5  1  0  0  0
  4 36  1  0  0  0
  4 37  1  0  0  0
  5 38  1  0  0  0
  5  6  1  0  0  0
  5 27  1  0  0  0
  6  7  1  0  0  0
  6 26  1  0  0  0
  7  8  2  0  0  0
  7 39  1  0  0  0
  8 25  1  0  0  0
  8  9  1  0  0  0
  9 10  1  0  0  0
  9 40  1  0  0  0
 10 11  2  0  0  0
 10 12  1  0  0  0
 12 16  1  0  0  0
 12 13  2  0  0  0
 13 14  1  0  0  0
 14 15  1  0  0  0
 14 41  1  0  0  0
 15 24  1  0  0  0
 15 16  2  0  0  0
 16 17  1  0  0  0
 17 42  1  0  0  0
 17 18  1  0  0  0
 17 43  1  0  0  0
 18 22  1  0  0  0
 18 44  1  0  0  0
 18 19  1  0  0  0
 19 21  1  0  0  0
 19 22  1  0  0  0
 19 20  1  0  0  0
 22 23  1  0  0  0
 22 24  1  0  0  0
 23 47  1  0  0  0
 23 46  1  0  0  0
 23 45  1  0  0  0
 24 49  1  0  0  0
 24 48  1  0  0  0
 25 50  1  0  0  0
 25 26  2  0  0  0
 27 28  2  0  0  0
 27 32  1  0  0  0
 28 51  1  0  0  0
 28 29  1  0  0  0
 29 30  2  0  0  0
 29 52  1  0  0  0
 30 31  1  0  0  0
 30 53  1  0  0  0
 31 32  2  0  0  0
 31 54  1  0  0  0
 32 55  1  0  0  0
M  CHG  1   1   1
M  END
> <s_m_entry_id>
251

> <s_m_entry_name>
4RFM ligand_4RFM-model-azet.1_ligand

> <b_ppw_prepared>
1

> <s_ppw_prepared_with_version>
2019-4

> <b_ppw_created_disulfur>
1

> <s_m_Source_Path>
C:\Users\dweiss\Documents\Schrodinger

> <s_m_Source_File>
4RFM_model_azet.mae

> <i_m_Source_File_Index>
1

> <r_pdb_PDB_RESOLUTION>
2.1

> <s_pdb_PDB_CLASSIFICATION>
TRANSFERASE/INHIBITOR

> <r_ff_Potential_Energy-OPLS_2005>
3213.09403692917

> <r_ff_RMS_Derivative-OPLS_2005>
0.0481429769324929

> <i_pdb_PDB_CRYST1_z>
2

> <s_pdb_PDB_CRYST1_Space_Group>
P 1 21 1

> <s_pdb_PDB_ID>
4RFM

> <r_pdb_PDB_EXPDTA_TEMPERATURE>
100

> <i_bb_status>
0

> <s_pdb_PDB_TITLE>
ITK KINASE DOMAIN IN COMPLEX WITH COMPOUND 1 N-{1-[(1,1-DIOXO-1-THIAN- 2-YL)(PHENYL)METHYL]-1H- PYRAZOL-4-YL}-5,5-DIFLUORO-5A-METHYL-1H,4H, 4AH,5H,5AH,6H-CYCLOPROPA[F]INDAZOLE-3-CARBOXAMIDE

> <s_pdb_PDB_DEPOSITION_DATE>
26-SEP-14

> <r_pdb_PDB_CRYST1_a>
40.006

> <r_pdb_PDB_CRYST1_b>
69.561

> <r_pdb_PDB_CRYST1_c>
47.347

> <r_pdb_PDB_CRYST1_beta>
113.39

> <s_bb_asu_chains>
A

> <s_pdb_PDB_REMARK_350_Biomolecule_1_Transformation_1>
1.000000 0.000000 0.000000   0.000000;0.000000 1.000000 0.000000   0.000000;0.000000 0.000000 1.000000   0.000000

> <b_ff_Minimization_Converged-OPLS_2005>
1

> <s_pdb_PDB_format_version>
3.30

> <r_pdb_PDB_Rfree>
0.263999998569489

> <i_bb_altloc>
0

> <s_pdb_PDB_EXPDTA>
X-RAY DIFFRACTION

> <r_pdb_PDB_EXPDTA_PH>
8

> <s_pdb_PDB_REMARK_350_Biomolecule_1_Chains>
A

> <r_pdb_PDB_CRYST1_gamma>
90

> <r_bb_biounit_size_multiplier>
1

> <i_bb_biounit_orig_ct_size>
4248

> <r_pdb_PDB_CRYST1_alpha>
90

> <r_pdb_PDB_R>
0.202999994158745

> <s_bb_structure_id>
565089

> <s_bb_ligand_code>
3P6

> <i_bb_query_id>
24989

> <s_m_job_name>
align_binding_sites_3

> <s_ppw_entry_id_backup>
249

> <b_ppw_assigned_bond_orders>
1

> <b_ppw_added_hydrogens>
1

> <b_ppw_treated_metals>
1

> <s_m_subgroup_title>
4RFM series

> <s_m_subgroupid>
4RFM model azet - preprocessed_split_by_structure

> <b_m_subgroup_collapsed>
0

$$$$
des-phenyl
                    3D
 Schrodinger Suite 2019-4.
 50 54  0  0  1  0            999 V2000
    8.2610   24.8843    3.2067 C   0  0  0  0  0  0
    7.3234   25.9640    2.7540 C   0  0  2  0  0  0
    6.2442   26.1107    3.7263 N   0  0  0  0  0  0
    5.5847   27.2846    3.9789 C   0  0  0  0  0  0
    4.6557   26.9714    4.9543 C   0  0  0  0  0  0
    3.6905   27.8687    5.5825 N   0  0  0  0  0  0
    2.8100   27.5234    6.5223 C   0  0  0  0  0  0
    2.7211   26.3822    6.9656 O   0  0  0  0  0  0
    1.9668   28.6874    6.9514 C   0  0  0  0  0  0
    2.1700   29.8701    6.3871 N   0  0  0  0  0  0
    1.2706   30.6815    6.9799 N   0  0  0  0  0  0
    0.5063   30.0193    7.9110 C   0  0  0  0  0  0
    0.9276   28.7252    7.9260 C   0  0  0  0  0  0
    0.3730   27.6364    8.8031 C   0  0  0  0  0  0
   -0.8418   28.1173    9.5984 C   0  0  2  0  0  0
   -2.1204   28.5035    8.8959 C   0  0  0  0  0  0
   -2.1546   28.4730    7.5128 F   0  0  0  0  0  0
   -3.3138   28.1395    9.4928 F   0  0  0  0  0  0
   -1.3069   29.5809    9.5695 C   0  0  1  0  0  0
   -1.9276   30.1299   10.8199 C   0  0  0  0  0  0
   -0.5692   30.6276    8.7418 C   0  0  0  0  0  0
    4.8367   25.6089    5.2127 C   0  0  0  0  0  0
    5.7927   25.0895    4.4741 N   0  0  0  0  0  0
    6.7469   25.5980    1.4184 C   0  0  0  0  0  0
    9.1281   25.2225    4.4049 C   0  0  0  0  0  0
   10.2845   24.6366    3.7229 N   0  3  0  0  0  0
    9.5735   24.7902    2.4514 C   0  0  0  0  0  0
    7.7237   23.9380    3.2936 H   0  0  0  0  0  0
    7.8668   26.9052    2.6695 H   0  0  0  0  0  0
    5.8329   28.2002    3.4562 H   0  0  0  0  0  0
    3.7975   28.7933    5.1903 H   0  0  0  0  0  0
    1.1949   31.6604    6.7370 H   0  0  0  0  0  0
    0.0827   26.7631    8.2184 H   0  0  0  0  0  0
    1.1308   27.2959    9.5089 H   0  0  0  0  0  0
   -0.9955   27.5667   10.5245 H   0  0  0  0  0  0
   -2.2087   31.1707   10.6592 H   0  0  0  0  0  0
   -2.8149   29.5484   11.0705 H   0  0  0  0  0  0
   -1.2104   30.0694   11.6384 H   0  0  0  0  0  0
   -0.1323   31.3623    9.4182 H   0  0  0  0  0  0
   -1.2877   31.1538    8.1129 H   0  0  0  0  0  0
    4.2755   25.0185    5.9283 H   0  0  0  0  0  0
    7.5526   25.4886    0.6925 H   0  0  0  0  0  0
    6.2035   24.6569    1.5028 H   0  0  0  0  0  0
    6.0655   26.3827    1.0894 H   0  0  0  0  0  0
    9.2320   26.2962    4.5883 H   0  0  0  0  0  0
    8.8512   24.7305    5.3408 H   0  0  0  0  0  0
   11.1908   25.1040    3.8262 H   0  0  0  0  0  0
    9.6653   23.9404    1.7703 H   0  0  0  0  0  0
    9.8421   25.7042    1.9130 H   0  0  0  0  0  0
   10.3686   23.6581    3.9586 H   0  0  0  0  0  0
  1  2  1  0  0  0
  1 27  1  0  0  0
  1 25  1  0  0  0
  1 28  1  0  0  0
  2  3  1  0  0  0
  2 24  1  0  0  0
  2 29  1  0  0  0
  3  4  1  0  0  0
  3 23  1  0  0  0
  4  5  2  0  0  0
  4 30  1  0  0  0
  5  6  1  0  0  0
  5 22  1  0  0  0
  6  7  1  0  0  0
  6 31  1  0  0  0
  7  8  2  0  0  0
  7  9  1  0  0  0
  9 10  2  0  0  0
  9 13  1  0  0  0
 10 11  1  0  0  0
 11 12  1  0  0  0
 11 32  1  0  0  0
 12 13  2  0  0  0
 12 21  1  0  0  0
 13 14  1  0  0  0
 14 15  1  0  0  0
 14 33  1  0  0  0
 14 34  1  0  0  0
 15 16  1  0  0  0
 15 19  1  0  0  0
 15 35  1  0  0  0
 16 17  1  0  0  0
 16 18  1  0  0  0
 16 19  1  0  0  0
 19 20  1  0  0  0
 19 21  1  0  0  0
 20 36  1  0  0  0
 20 37  1  0  0  0
 20 38  1  0  0  0
 21 39  1  0  0  0
 21 40  1  0  0  0
 22 23  2  0  0  0
 22 41  1  0  0  0
 24 42  1  0  0  0
 24 43  1  0  0  0
 24 44  1  0  0  0
 25 26  1  0  0  0
 25 45  1  0  0  0
 25 46  1  0  0  0
 26 27  1  0  0  0
 26 47  1  0  0  0
 26 50  1  0  0  0
 27 48  1  0  0  0
 27 49  1  0  0  0
M  CHG  1  26   1
M  END
> <s_m_entry_id>
254

> <s_m_entry_name>
entry

> <s_m_subgroup_title>
4RFM series

> <s_m_subgroupid>
4RFM model azet - preprocessed_split_by_structure

> <b_m_subgroup_collapsed>
0

$$$$
des-methyl
                    3D
 Schrodinger Suite 2019-4.
 47 51  0  0  1  0            999 V2000
    8.6636   25.8652    3.3677 C   0  0  0  0  0  0
    7.4535   26.3977    2.6591 C   0  0  0  0  0  0
    6.3324   26.4625    3.5921 N   0  0  0  0  0  0
    5.6655   27.6130    3.9214 C   0  0  0  0  0  0
    4.6931   27.2187    4.8221 C   0  0  0  0  0  0
    3.7033   28.0616    5.4864 N   0  0  0  0  0  0
    2.8553   27.6603    6.4339 C   0  0  0  0  0  0
    2.8219   26.5075    6.8540 O   0  0  0  0  0  0
    1.9726   28.7789    6.9026 C   0  0  0  0  0  0
    2.1162   29.9806    6.3604 N   0  0  0  0  0  0
    1.1950   30.7412    6.9862 N   0  0  0  0  0  0
    0.4762   30.0284    7.9162 C   0  0  0  0  0  0
    0.9509   28.7530    7.8959 C   0  0  0  0  0  0
    0.4581   27.6240    8.7589 C   0  0  0  0  0  0
   -0.7607   28.0370    9.5856 C   0  0  2  0  0  0
   -2.0670   28.3840    8.9141 C   0  0  0  0  0  0
   -2.1253   28.3808    7.5315 F   0  0  0  0  0  0
   -3.2330   27.9581    9.5239 F   0  0  0  0  0  0
   -1.2865   29.4802    9.5964 C   0  0  1  0  0  0
   -1.9063   29.9767   10.8689 C   0  0  0  0  0  0
   -0.6082   30.5738    8.7785 C   0  0  0  0  0  0
    4.8586   25.8371    4.9630 C   0  0  0  0  0  0
    5.8452   25.3806    4.2230 N   0  0  0  0  0  0
    9.3057   26.8028    4.3730 C   0  0  0  0  0  0
   10.6258   26.4532    3.8431 N   0  3  0  0  0  0
    9.9758   25.9872    2.6159 C   0  0  0  0  0  0
    8.4580   24.8650    3.7536 H   0  0  0  0  0  0
    7.6662   27.3960    2.2768 H   0  0  0  0  0  0
    7.1983   25.7379    1.8298 H   0  0  0  0  0  0
    5.9392   28.5707    3.4959 H   0  0  0  0  0  0
    3.7646   28.9978    5.1124 H   0  0  0  0  0  0
    1.0744   31.7208    6.7658 H   0  0  0  0  0  0
    0.1936   26.7516    8.1608 H   0  0  0  0  0  0
    1.2423   27.3009    9.4439 H   0  0  0  0  0  0
   -0.8743   27.4614   10.5022 H   0  0  0  0  0  0
   -2.2332   31.0079   10.7357 H   0  0  0  0  0  0
   -2.7639   29.3536   11.1226 H   0  0  0  0  0  0
   -1.1722   29.9293   11.6733 H   0  0  0  0  0  0
   -0.1897   31.3119    9.4629 H   0  0  0  0  0  0
   -1.3593   31.0825    8.1738 H   0  0  0  0  0  0
    4.2644   25.1878    5.5963 H   0  0  0  0  0  0
    9.0455   27.8555    4.2269 H   0  0  0  0  0  0
    9.1513   26.5444    5.4237 H   0  0  0  0  0  0
   11.3244   27.1990    3.7635 H   0  0  0  0  0  0
   10.3761   25.0538    2.2122 H   0  0  0  0  0  0
    9.9632   26.7386    1.8206 H   0  0  0  0  0  0
   11.0092   25.6701    4.3528 H   0  0  0  0  0  0
  1  2  1  0  0  0
  1 26  1  0  0  0
  1 24  1  0  0  0
  1 27  1  0  0  0
  2  3  1  0  0  0
  2 28  1  0  0  0
  2 29  1  0  0  0
  3  4  1  0  0  0
  3 23  1  0  0  0
  4  5  2  0  0  0
  4 30  1  0  0  0
  5  6  1  0  0  0
  5 22  1  0  0  0
  6  7  1  0  0  0
  6 31  1  0  0  0
  7  8  2  0  0  0
  7  9  1  0  0  0
  9 10  2  0  0  0
  9 13  1  0  0  0
 10 11  1  0  0  0
 11 12  1  0  0  0
 11 32  1  0  0  0
 12 13  2  0  0  0
 12 21  1  0  0  0
 13 14  1  0  0  0
 14 15  1  0  0  0
 14 33  1  0  0  0
 14 34  1  0  0  0
 15 16  1  0  0  0
 15 19  1  0  0  0
 15 35  1  0  0  0
 16 17  1  0  0  0
 16 18  1  0  0  0
 16 19  1  0  0  0
 19 20  1  0  0  0
 19 21  1  0  0  0
 20 36  1  0  0  0
 20 37  1  0  0  0
 20 38  1  0  0  0
 21 39  1  0  0  0
 21 40  1  0  0  0
 22 23  2  0  0  0
 22 41  1  0  0  0
 24 25  1  0  0  0
 24 42  1  0  0  0
 24 43  1  0  0  0
 25 26  1  0  0  0
 25 44  1  0  0  0
 25 47  1  0  0  0
 26 45  1  0  0  0
 26 46  1  0  0  0
M  CHG  1  25   1
M  END
> <s_m_entry_id>
255

> <s_m_entry_name>
entry

> <s_m_subgroup_title>
4RFM series

> <s_m_subgroupid>
4RFM model azet - preprocessed_split_by_structure

> <b_m_subgroup_collapsed>
0

$$$$
