9    
From eth_opt.psi4out: Frame 1 / 4, Energy=    -154.8631719238
C       -0.5901009678   -0.6903386399    0.9198530513
C        0.3518990322    0.3216613601    0.3048530513
O        0.1898990322    0.3076613601   -1.1051469487
H        0.8068990322    0.9646613601   -1.4661469487
H       -0.4911009678   -0.7053386399    2.0088530513
H       -1.6291009678   -0.4553386399    0.6638530513
H       -0.3871009678   -1.6943386399    0.5328530513
H        1.3908990322    0.0706613601    0.5418530513
H        0.1318990322    1.3266613601    0.6758530513
9    
From eth_opt.psi4out: Frame 2 / 4, Energy=    -154.8644888455
C       -0.5920860937   -0.6913885670    0.9184769319
C        0.3598089713    0.3269877008    0.3149309939
O        0.1852481620    0.3045136695   -1.1150920240
H        0.7905443844    0.9545271267   -1.5124137341
H       -0.4925610220   -0.7070229119    2.0188941238
H       -1.6397834120   -0.4448964864    0.6627618087
H       -0.3765146500   -1.7043846866    0.5300350555
H        1.4075007746    0.0701692521    0.5887200305
H        0.1364750664    1.3376134778    0.7233454686
9    
From eth_opt.psi4out: Frame 3 / 4, Energy=    -154.8645221841
C       -0.5928932013   -0.6920059050    0.9160182183
C        0.3604170073    0.3279844908    0.3150828682
O        0.1846824306    0.3035685593   -1.1129948118
H        0.7929884527    0.9544252879   -1.5033624433
H       -0.4917379293   -0.7072607499    2.0171700592
H       -1.6405707697   -0.4434024969    0.6631369814
H       -0.3751989360   -1.7050954197    0.5292409253
H        1.4109318633    0.0755445676    0.5823005678
H        0.1405973404    1.3422760972    0.7170395228
9    
From eth_opt.psi4out: Frame 4 / 4, Energy=    -154.8645238860
C       -0.5930587547   -0.6920835692    0.9165213613
C        0.3599057121    0.3274476750    0.3151282650
O        0.1851478686    0.3039439365   -1.1135225047
H        0.7933177231    0.9552168632   -1.5034895700
H       -0.4922298022   -0.7077437265    2.0178402900
H       -1.6400581782   -0.4424080746    0.6638039232
H       -0.3742908238   -1.7045489281    0.5299216297
H        1.4102586922    0.0756712670    0.5824072888
H        0.1406846914    1.3416588842    0.7168855537
